64

O      16.268974     22.534945     16.041800
H      16.696165     22.370253     16.916073
H      16.380228     21.681091     15.568108
O      14.481307     16.785793     21.737900
H      14.126715     17.650909     21.994217
H      13.804340     16.578491     21.099138
O      17.045681     18.227943     12.263239
H      17.449430     17.621214     11.585784
H      16.822016     17.649534     12.978888
O      12.995560     18.570431     18.889303
H      12.645250     17.680729     19.039322
H      13.033621     18.845472     19.777996
O      17.625254     12.526294     18.327904
H      17.751076     13.438503     18.000944
H      17.332554     12.210746     17.477732
O      19.148170     18.877769     15.622323
H      19.884348     19.475285     15.774079
H      19.303370     18.793699     14.660753
O      19.627901     16.448908     13.247179
H      19.336758     16.593853     12.343552
H      20.585772     16.725643     13.270544
O      17.669561     22.471020     18.481476
H      18.588804     22.330080     18.180767
H      17.862776     22.758949     19.358541
O      16.819586     20.201042     14.918226
H      17.543295     19.714396     15.320642
H      16.784693     19.799500     14.043907
O      13.415030     18.909412     15.118216
H      13.683690     18.922138     14.211697
H      12.620808     18.285429     15.088450
O      20.745346     14.898483     15.260414
H      20.263056     15.295935     14.469127
H      21.653566     14.721743     14.923072
O      17.353924     16.061464     14.665833
H      18.208748     16.042526     14.238809
H      16.843180     15.610358     14.013082
O      14.961739     18.131985     17.063684
H      14.433065     18.294939     16.303381
H      14.486406     18.532322     17.795635
O      19.731564     20.328705     13.325883
H      19.021809     20.942751     13.071358
H      19.955120     20.098183     12.436770
O      13.256712     20.803204     17.090307
H      13.037510     20.174894     17.762735
H      13.213964     20.227634     16.313700
O      18.510040     17.890312     20.380295
H      17.776739     18.484663     20.267881
H      18.693493     17.678883     19.479300
O      18.277151     14.814169     16.895212
H      17.797552     15.188646     16.116894
H      19.062273     14.579891     16.455973
O      21.817759     20.047674     16.343945
H      22.050205     20.461819     15.530554
H      22.253195     19.162424     16.246740
O      17.600000     17.600000     17.600000
H      17.958881     18.111206     16.839680
H      17.708988     16.658648     17.442671
H      16.630672     17.668097     17.474840
O      20.530876     22.499212     18.016294
H      20.568806     22.322632     17.072960
H      20.368610     23.428728     17.942535
O      16.873718     12.224928     15.565058
H      16.351355     11.454384     15.230225
H      17.274168     12.623056     14.755235
