79

O      15.849890     22.131222     16.251987
H      16.341930     21.802568     17.042130
H      15.828809     21.312090     15.667896
O      16.582476     18.323994     12.818412
H      17.340202     18.020752     12.311804
H      16.236357     17.458878     13.097540
O      19.324598     18.458942     15.815214
H      19.801613     19.135571     16.326948
H      20.045204     18.070242     15.281183
O      19.407568     16.092152     13.411667
H      19.535660     15.496418     12.680254
H      20.152260     16.695307     13.260468
O      17.336523     21.438297     18.317154
H      18.114258     21.879099     18.027651
H      17.568207     21.078186     19.197252
O      15.399870     15.868324     12.917400
H      14.798154     16.330400     12.274746
H      15.011263     14.974651     12.943651
O      21.918810     17.097904     16.866226
H      22.637753     16.531219     17.218987
H      21.400595     16.424080     16.440620
O      17.046154     20.123543     14.994601
H      17.867052     19.648178     15.104691
H      16.705097     19.659184     14.237747
O      21.995001     20.497093     18.987301
H      21.754349     20.426439     18.019716
H      21.543852     21.337912     19.239777
O      20.643023     14.991314     15.542240
H      20.006599     15.241765     14.844643
H      21.445616     14.753198     15.064707
O      20.057045     22.292974     18.348738
H      20.024780     22.109806     17.393509
H      20.190401     23.232943     18.341169
O      16.534916     12.831626     15.836741
H      16.251610     12.039162     15.390050
H      17.211113     13.132753     15.206369
O      17.423677     15.635972     14.951105
H      18.046185     16.075089     14.358568
H      16.574308     15.704290     14.449348
O      21.432959     17.770660     13.649183
H      22.395844     17.624191     13.815849
H      21.472914     18.577618     13.140900
O      14.919689     18.215719     17.264582
H      14.490567     18.910778     16.807590
H      14.486197     18.176430     18.115324
O      19.726576     20.483761     13.076990
H      18.968084     20.994850     12.779711
H      19.859444     19.878920     12.376190
O      18.990051     21.379776     20.865627
H      19.615856     21.696018     20.213924
H      19.542221     20.749462     21.362291
O      18.213678     17.519506     20.886761
H      18.869753     18.207005     20.752954
H      18.131918     17.108776     19.987425
O      20.244631     12.797709     18.074677
H      21.010187     13.354088     18.362469
H      19.668880     13.513332     17.868156
O      19.091694     21.832754     15.464150
H      19.457771     21.304310     14.751055
H      18.270975     21.301044     15.491548
O      18.339970     14.965614     17.585882
H      17.854141     15.148424     16.731583
H      19.191982     15.184727     17.246923
O      21.373299     20.004318     16.466599
H      21.560608     20.440575     15.651738
H      21.713100     19.079327     16.311499
O      22.160631     17.566120     19.821871
H      22.178642     17.574614     18.849579
H      22.158554     18.516449     19.905968
O      17.600000     17.600000     17.600000
H      18.295336     17.896265     16.959713
H      17.692062     16.622578     17.473810
H      16.775173     17.857988     17.144356
O      22.236959     14.350312     19.323347
H      22.664810     13.644704     19.854813
H      22.626616     15.070597     19.806095
O      17.995264     16.892754     11.149797
H      18.157419     16.007183     11.535931
H      18.622034     16.949535     10.373583
