67

O      16.058233     22.548784     16.210348
H      16.524406     22.423534     17.015167
H      16.132114     21.686760     15.812502
O      16.473433     18.416288     12.658596
H      17.065687     18.292580     11.938576
H      16.284256     17.521749     12.940550
O      12.934330     18.492064     19.114239
H      12.553675     17.620789     19.327055
H      13.007326     18.781742     20.064638
O      17.248295     12.585186     18.357391
H      17.480419     13.509595     18.414669
H      16.953676     12.518227     17.452753
O      19.094078     18.526011     15.601393
H      19.829264     19.014200     15.907404
H      19.456837     18.116352     14.797854
O      19.463091     16.522686     13.565633
H      18.921766     16.900560     12.822220
H      20.304462     17.003731     13.475680
O      17.539875     21.976467     18.326143
H      18.439316     21.817154     17.980431
H      17.715960     21.722019     19.226463
O      22.435488     17.404339     16.386318
H      23.222908     17.752146     16.840986
H      22.237373     16.600393     16.865969
O      16.522066     20.275486     14.917068
H      17.269070     19.636436     15.093638
H      16.217884     19.925940     14.081965
O      13.202940     18.942934     15.172056
H      13.315992     19.183945     14.257653
H      12.779140     18.076675     15.099834
O      20.409744     14.786166     15.447904
H      20.022951     15.375550     14.781981
H      21.252813     14.500368     15.085444
O      16.635622     12.368832     15.733571
H      16.267305     11.755472     15.119778
H      16.626221     13.167967     15.227233
O      16.865108     15.689005     14.845087
H      17.639833     15.850131     14.317324
H      16.171860     15.418297     14.240872
O      21.615910     17.960825     13.729674
H      21.808220     17.729679     14.627558
H      22.506962     18.108631     13.352446
O      14.929646     18.180079     17.279795
H      14.557619     18.181292     16.379738
H      14.163629     18.412769     17.821077
O      18.555983     17.736927     20.742977
H      18.950304     18.626616     20.862059
H      18.230034     17.719963     19.819109
O      20.120800     12.657051     18.140903
H      20.768637     13.363708     18.173767
H      19.246189     13.028580     17.868595
O      17.867308     14.925675     17.182587
H      17.175529     15.097265     16.543140
H      18.640211     14.739764     16.631029
O      21.807091     20.007309     16.229874
H      21.955816     20.413200     15.369095
H      22.054695     19.106310     16.015774
O      22.477386     18.170610     19.484709
H      21.611378     18.547642     19.636547
H      22.899599     18.829348     18.847214
O      17.600000     17.600000     17.600000
H      17.936359     17.925741     16.737078
H      17.603455     16.666046     17.431000
H      16.679499     17.697453     17.581598
O      14.218940     16.544582     21.798807
H      14.092308     17.520746     21.917048
H      13.558346     16.344706     21.136116
