67

O      13.847166     17.142452     20.958595
H      13.492936     17.935686     21.347336
H      13.197542     17.034990     20.245558
O      16.520288     12.562429     18.650415
H      16.600853     13.502785     18.911560
H      16.591007     12.608097     17.687422
O      18.971359     19.727499     16.189848
H      19.915779     19.666351     16.429201
H      18.984564     19.935337     15.255427
O      19.117182     16.677742     13.072277
H      18.783342     16.693043     12.163063
H      20.052444     16.967960     12.971137
O      16.867373     21.922035     17.329247
H      16.889509     21.026255     16.919073
H      17.578659     22.346880     16.846617
O      21.777662     17.312714     16.610327
H      22.396881     16.620178     16.431761
H      21.939474     17.457222     17.545511
O      16.451153     19.958557     14.726377
H      16.585440     19.038771     14.757257
H      16.525074     20.162693     13.804183
O      14.026653     14.253363     19.919220
H      14.268003     14.300494     20.845470
H      14.049240     13.299974     19.729336
O      19.581455     14.441224     14.589138
H      19.039627     14.955357     13.996202
H      20.394545     14.296277     14.059597
O      15.854300     12.409562     15.715471
H      15.353917     11.829366     15.083326
H      16.749905     12.122969     15.461649
O      16.709944     16.929255     14.303818
H      17.622295     16.685257     14.066772
H      16.169201     16.299337     13.784083
O      14.889256     18.319775     17.697132
H      14.708950     18.820553     16.894928
H      14.144314     18.593700     18.152905
O      19.019419     20.697916     20.785568
H      19.318937     20.905880     19.909805
H      19.823425     20.220453     21.120251
O      13.347968     20.924870     16.769485
H      12.874062     20.598560     17.543905
H      13.154253     20.279770     16.107378
O      17.076622     18.094543     20.453568
H      16.582390     18.305824     19.651438
H      17.758711     18.793428     20.371641
O      20.306095     12.747416     16.693460
H      21.127140     13.238756     16.918045
H      19.850338     13.419634     16.087904
O      17.556023     15.155662     16.382360
H      16.856478     14.512931     16.190784
H      18.250481     14.821235     15.814213
O      21.648277     20.220566     16.279366
H      21.705326     21.046484     15.770631
H      21.995398     19.574972     15.614882
O      21.821808     17.807220     19.641411
H      21.493336     17.989246     20.577162
H      21.794710     18.713139     19.345562
O      17.600000     17.600000     17.600000
H      17.934784     18.185812     16.945900
H      17.688885     16.769855     17.066916
H      16.634165     17.702223     17.515575
O      21.504606     17.644720     13.760111
H      21.177109     17.759506     14.628966
H      22.312855     18.199593     13.747558
O      19.341980     22.718876     15.303404
H      20.291161     22.807364     15.127205
H      19.005342     23.307901     14.641924
