73

O      16.021978     22.267429     15.931535
H      16.436144     22.274368     16.813328
H      16.212467     21.305866     15.754570
O      14.504184     16.452168     21.369722
H      14.705605     17.409002     21.396080
H      13.814364     16.284483     20.673988
O      16.800224     18.408606     12.956276
H      17.398260     17.970215     12.376406
H      16.310793     17.644325     13.291383
O      12.849316     18.700201     19.137831
H      13.073984     17.736900     19.189054
H      12.904787     18.866938     20.118734
O      17.514324     12.378303     18.490364
H      17.832893     13.249131     18.780088
H      17.396723     12.571683     17.574295
O      19.269442     18.516403     15.398624
H      19.999062     19.053537     15.783073
H      19.721300     18.145439     14.570663
O      19.549229     16.263460     13.376639
H      19.110884     16.461771     12.500269
H      20.397812     16.523548     13.116661
O      17.421741     21.975948     18.314974
H      18.126265     22.246487     17.713640
H      17.873991     21.685915     19.149933
O      15.269543     15.946340     13.001399
H      15.180145     16.462547     12.196873
H      15.121569     15.006092     12.735210
O      22.071159     17.389585     16.799337
H      22.900591     17.045183     16.501080
H      21.477924     16.678637     16.505075
O      17.275600     20.191540     14.895733
H      18.022514     19.626102     15.235817
H      16.997709     19.741617     14.048623
O      13.264485     19.478968     14.986846
H      13.679445     19.541281     14.154280
H      12.831821     18.627995     14.969787
O      20.630341     15.007069     15.593487
H      20.212570     15.324055     14.789075
H      21.476177     14.757814     15.201569
O      16.833084     12.899236     15.753381
H      16.685440     12.018444     15.407492
H      17.150291     13.353182     14.974475
O      17.390535     15.877221     14.902338
H      17.967821     16.417934     14.331629
H      16.700464     15.701190     14.289895
O      14.728339     18.454195     17.274540
H      14.574658     19.085863     16.579651
H      14.065346     18.725714     17.909887
O      19.396053     21.094072     20.592175
H      20.090298     21.575340     20.152641
H      19.731792     20.366219     21.055742
O      18.702995     17.877741     20.475187
H      19.542953     18.267765     20.603260
H      18.365828     18.075506     19.581871
O      19.245930     22.266479     15.493849
H      19.945856     21.781628     15.043720
H      18.472507     21.647739     15.290754
O      18.538820     15.029002     17.246672
H      17.982307     14.851904     16.518784
H      19.371519     15.109768     16.736649
O      21.357658     19.956997     16.274723
H      21.814899     20.570444     15.676443
H      21.891632     19.172943     16.168734
O      17.600000     17.600000     17.600000
H      18.093576     17.755144     16.757616
H      17.523504     16.646336     17.697706
H      16.667267     17.726095     17.339548
O      13.477945     13.484120     18.870201
H      14.116858     13.893713     19.416004
H      13.812811     13.517080     17.974663
O      14.160089     19.263792     12.304941
H      14.063844     18.626171     11.569540
H      15.143761     19.263784     12.329575
