121

O      16.058233     22.548784     16.210348           1.000000e+00
H      16.524406     22.423534     17.015167           1.000000e+00
H      16.132114     21.686760     15.812502           1.000000e+00
O      14.218940     16.544582     21.798807           1.000000e+00
H      14.092308     17.520746     21.917048           1.000000e+00
H      13.558346     16.344706     21.136116           1.000000e+00
O      16.473433     18.416288     12.658596           1.000000e+00
H      17.065687     18.292580     11.938576           1.000000e+00
H      16.284256     17.521749     12.940550           1.000000e+00
O      12.934330     18.492064     19.114239           1.000000e+00
H      12.553675     17.620789     19.327055           1.000000e+00
H      13.007326     18.781742     20.064638           1.000000e+00
O      17.248295     12.585186     18.357391           1.000000e+00
H      17.480419     13.509595     18.414669           1.000000e+00
H      16.953676     12.518227     17.452753           1.000000e+00
O      19.094078     18.526011     15.601393           1.000000e+00
H      19.829264     19.014200     15.907404           1.000000e+00
H      19.456837     18.116352     14.797854           1.000000e+00
O      19.463091     16.522686     13.565633           1.000000e+00
H      18.921766     16.900560     12.822220           1.000000e+00
H      20.304462     17.003731     13.475680           1.000000e+00
O      17.539875     21.976467     18.326143           1.000000e+00
H      18.439316     21.817154     17.980431           1.000000e+00
H      17.715960     21.722019     19.226463           1.000000e+00
O      22.435488     17.404339     16.386318           1.000000e+00
H      23.222908     17.752146     16.840986           1.000000e+00
H      22.237373     16.600393     16.865969           1.000000e+00
O      16.522066     20.275486     14.917068           1.000000e+00
H      17.269070     19.636436     15.093638           1.000000e+00
H      16.217884     19.925940     14.081965           1.000000e+00
O      13.202940     18.942934     15.172056           1.000000e+00
H      13.315992     19.183945     14.257653           1.000000e+00
H      12.779140     18.076675     15.099834           1.000000e+00
O      20.409744     14.786166     15.447904           1.000000e+00
H      20.022951     15.375550     14.781981           1.000000e+00
H      21.252813     14.500368     15.085444           1.000000e+00
O      16.865108     15.689005     14.845087           1.000000e+00
H      17.639833     15.850131     14.317324           1.000000e+00
H      16.171860     15.418297     14.240872           1.000000e+00
O      14.929646     18.180079     17.279795           1.000000e+00
H      14.557619     18.181292     16.379738           1.000000e+00
H      14.163629     18.412769     17.821077           1.000000e+00
O      19.317480     21.445269     20.839874           1.000000e+00
H      19.644243     22.359991     20.728842           1.000000e+00
H      20.107166     20.918421     20.822395           1.000000e+00
O      18.555983     17.736927     20.742977           1.000000e+00
H      18.950304     18.626616     20.862059           1.000000e+00
H      18.230034     17.719963     19.819109           1.000000e+00
O      17.867308     14.925675     17.182587           1.000000e+00
H      17.175529     15.097265     16.543140           1.000000e+00
H      18.640211     14.739764     16.631029           1.000000e+00
O      21.807091     20.007309     16.229874           1.000000e+00
H      21.955816     20.413200     15.369095           1.000000e+00
H      22.054695     19.106310     16.015774           1.000000e+00
O      22.477386     18.170610     19.484709           1.000000e+00
H      21.611378     18.547642     19.636547           1.000000e+00
H      22.899599     18.829348     18.847214           1.000000e+00
O      17.600000     17.600000     17.600000           1.000000e+00
H      17.936359     17.925741     16.737078           1.000000e+00
H      17.603455     16.666046     17.431000           1.000000e+00
H      16.679499     17.697453     17.581598           1.000000e+00
O      15.281311     15.489324     12.463081           4.658302e-01
H      14.602564     16.004866     11.980587           4.658302e-01
H      14.765293     14.689115     12.579636           4.658302e-01
O      12.228491     15.950216     19.904079           3.647097e-01
H      12.557812     15.167874     19.492065           3.647097e-01
H      11.374802     15.979523     19.434723           3.647097e-01
O      20.972296     19.284925     22.298527           4.552359e-01
H      20.795654     18.760038     23.037148           4.552359e-01
H      21.750340     19.784504     22.522518           4.552359e-01
O      13.531713     13.390070     19.209904           3.672875e-01
H      14.229362     12.858666     19.662794           3.672875e-01
H      13.723431     13.307211     18.246944           3.672875e-01
O      18.371994     17.281401     23.268118           9.170887e-01
H      18.441895     17.618019     22.337877           9.170887e-01
H      19.225586     16.988424     23.573372           9.170887e-01
O      22.158226     20.824299     18.820726           9.297264e-01
H      22.088795     20.544577     17.902882           9.297264e-01
H      21.456615     21.494074     18.869074           9.297264e-01
O      12.067598     16.302031     15.381083           3.166196e-01
H      12.468575     15.994933     16.236982           3.166196e-01
H      11.769439     15.465816     14.972192           3.166196e-01
O      14.136845     12.797853     16.763651           5.385301e-01
H      13.486088     12.069011     16.572439           5.385301e-01
H      14.938631     12.431465     16.371059           5.385301e-01
O      22.667204     14.060838     18.796019           6.147453e-02
H      22.764423     13.360808     19.444435           6.147453e-02
H      23.113729     14.695660     19.362497           6.147453e-02
O      15.032413     22.032167     20.104069           9.409305e-01
H      15.032663     22.113459     19.119839           9.409305e-01
H      15.818659     22.482517     20.384232           9.409305e-01
O      20.308592     22.510880     18.080986           9.825093e-01
H      20.777994     22.326736     17.291351           9.825093e-01
H      19.950653     23.442272     17.965918           9.825093e-01
O      16.635622     12.368832     15.733571           9.791714e-01
H      16.267305     11.755472     15.119778           9.791714e-01
H      16.626221     13.167967     15.227233           9.791714e-01
O      21.615910     17.960825     13.729674           9.938540e-01
H      21.808220     17.729679     14.627558           9.938540e-01
H      22.506962     18.108631     13.352446           9.938540e-01
O      13.886978     19.008530     12.570461           6.682014e-03
H      13.902667     18.285202     11.901661           6.682014e-03
H      14.745026     18.961607     13.024408           6.682014e-03
O      19.620764     20.294693     12.890100           8.494657e-01
H      18.959736     20.906075     12.628671           8.494657e-01
H      19.812977     19.819235     12.027202           8.494657e-01
O      12.884737     20.894590     17.183664           8.774417e-01
H      12.543576     20.263779     17.796467           8.774417e-01
H      13.009041     20.314425     16.415808           8.774417e-01
O      20.120800     12.657051     18.140903           9.962529e-01
H      20.768637     13.363708     18.173767           9.962529e-01
H      19.246189     13.028580     17.868595           9.962529e-01
O      19.846050     22.549484     15.251442           6.457360e-01
H      20.386345     21.746267     15.410486           6.457360e-01
H      19.156395     22.291111     14.642941           6.457360e-01
O      16.298061     15.117886     22.425838           9.953536e-01
H      17.126787     15.637994     22.469893           9.953536e-01
H      15.609009     15.587550     21.983950           9.953536e-01
O      17.882051     13.180308     13.007367           1.428980e-02
H      18.419750     13.570992     12.346056           1.428980e-02
H      17.387468     12.592553     12.391983           1.428980e-02
