112

O      14.065083     17.071945     21.127827           1.000000e+00
H      13.763252     17.936878     21.132900           1.000000e+00
H      13.604521     16.687162     20.376364           1.000000e+00
O      16.872999     12.419699     18.390108           1.000000e+00
H      16.534435     13.341011     18.445152           1.000000e+00
H      16.987104     12.328722     17.427324           1.000000e+00
O      18.976404     19.390854     16.174259           1.000000e+00
H      19.889864     19.670527     16.026262           1.000000e+00
H      18.417105     20.068478     15.767746           1.000000e+00
O      19.240690     16.680964     13.042089           1.000000e+00
H      18.905552     16.642340     12.111304           1.000000e+00
H      20.087816     17.061615     13.010393           1.000000e+00
O      16.884766     22.163513     17.429388           1.000000e+00
H      17.304121     21.265705     17.476067           1.000000e+00
H      17.607990     22.746035     17.557697           1.000000e+00
O      21.881853     17.197432     16.519026           1.000000e+00
H      22.326263     17.118740     17.381176           1.000000e+00
H      20.976700     17.138916     16.804466           1.000000e+00
O      16.225088     19.941172     14.627581           1.000000e+00
H      15.999266     18.993475     14.666600           1.000000e+00
H      16.727785     19.852911     13.812634           1.000000e+00
O      12.536297     16.423557     18.883171           1.000000e+00
H      13.016863     15.594944     19.238276           1.000000e+00
H      11.737774     15.990761     18.519054           1.000000e+00
O      20.048235     14.488447     14.725677           1.000000e+00
H      19.612511     14.797812     13.915118           1.000000e+00
H      20.980776     14.371132     14.436534           1.000000e+00
O      19.702232     22.168674     18.048914           1.000000e+00
H      19.784090     21.871281     17.135107           1.000000e+00
H      19.812023     23.116470     17.987125           1.000000e+00
O      16.923521     17.012018     14.118230           1.000000e+00
H      17.812084     16.864887     13.731345           1.000000e+00
H      16.369986     16.403988     13.596233           1.000000e+00
O      14.832582     18.364569     17.583893           1.000000e+00
H      14.600166     19.207998     17.187883           1.000000e+00
H      14.109577     18.295557     18.198360           1.000000e+00
O      18.831898     20.530527     20.697458           1.000000e+00
H      19.279215     21.013874     19.998009           1.000000e+00
H      19.503014     20.167112     21.287653           1.000000e+00
O      13.293053     20.572498     16.647423           1.000000e+00
H      12.756406     20.062239     17.247168           1.000000e+00
H      13.243134     20.044569     15.844335           1.000000e+00
O      17.294945     18.081718     20.656965           1.000000e+00
H      16.948929     17.765951     19.786613           1.000000e+00
H      17.882519     18.769655     20.301998           1.000000e+00
O      17.870213     15.123344     16.271637           1.000000e+00
H      17.330729     15.581676     15.623814           1.000000e+00
H      18.649540     14.850170     15.767839           1.000000e+00
O      21.760185     20.127317     15.881860           1.000000e+00
H      21.948708     20.707371     15.114768           1.000000e+00
H      22.296440     19.364296     15.662913           1.000000e+00
O      21.603146     17.902805     19.344042           1.000000e+00
H      20.794975     18.235186     19.813129           1.000000e+00
H      21.984194     18.776876     19.100883           1.000000e+00
O      17.600000     17.600000     17.600000           1.000000e+00
H      18.163374     18.072914     16.964329           1.000000e+00
H      17.599527     16.733631     17.208120           1.000000e+00
H      16.729559     17.996794     17.602406           1.000000e+00
O      15.443361     22.282343     15.092264           9.138566e-01
H      15.866590     22.268272     15.979314           9.138566e-01
H      15.636876     21.387577     14.754938           9.138566e-01
O      15.867277     18.758223     11.954111           4.657275e-01
H      16.452175     18.937567     11.214957           4.657275e-01
H      16.315315     17.986015     12.344351           4.657275e-01
O      12.242172     19.072529     18.508286           9.819977e-01
H      12.329519     18.100981     18.564989           9.819977e-01
H      12.381529     19.433716     19.418924           9.819977e-01
O      15.699459     15.217715     12.373562           4.067973e-01
H      15.253262     15.665097     11.636688           4.067973e-01
H      15.091478     14.470715     12.498507           4.067973e-01
O      21.083529     19.244764     22.021820           7.418500e-01
H      20.960022     18.817293     22.870371           7.418500e-01
H      22.011011     19.467319     21.984484           7.418500e-01
O      17.108017     21.994152     22.298958           1.015666e-03
H      17.276619     21.455580     21.529079           1.015666e-03
H      17.040167     22.868147     21.947128           1.015666e-03
O      13.320193     13.927535     19.668493           4.871319e-01
H      13.360341     13.529806     20.544683           4.871319e-01
H      12.884449     13.337817     19.073280           4.871319e-01
O      17.192457     17.324993     23.307426           9.177906e-01
H      16.991867     17.677851     22.443367           9.177906e-01
H      18.142105     17.518955     23.367228           9.177906e-01
O      21.946938     20.873981     18.509691           9.999482e-01
H      21.893204     20.504341     17.634996           9.999482e-01
H      21.287609     21.621906     18.406101           9.999482e-01
O      12.642254     18.758064     14.714788           7.618629e-01
H      12.691257     18.681501     13.740314           7.618629e-01
H      12.479603     17.865385     15.025543           7.618629e-01
O      22.757530     13.790849     18.536583           8.073911e-05
H      22.716923     13.003798     19.134636           8.073911e-05
H      23.061062     14.507553     19.098438           8.073911e-05
O      15.127098     21.997030     20.181171           9.644832e-01
H      14.912092     21.859531     19.229788           9.644832e-01
H      15.905915     22.540560     20.164124           9.644832e-01
O      16.198240     12.141537     15.611361           5.446390e-01
H      15.605670     11.767921     14.933311           5.446390e-01
H      17.070471     12.134134     15.204035           5.446390e-01
O      22.061615     17.527163     13.803032           7.506392e-01
H      21.899433     17.193766     14.746346           7.506392e-01
H      22.949917     17.822165     13.808932           7.506392e-01
O      19.408871     20.468742     12.977857           9.137113e-01
H      18.736401     21.023653     12.572048           9.137113e-01
H      19.350508     19.627100     12.452679           9.137113e-01
O      20.468691     12.755617     17.061092           9.704790e-01
H      21.143148     13.020311     17.644558           9.704790e-01
H      19.878252     13.557394     17.069122           9.704790e-01
O      19.568235     22.419117     15.224182           9.237048e-01
H      20.118095     22.126781     14.501215           9.237048e-01
H      19.085861     23.140787     14.797737           9.237048e-01
O      15.516584     15.358809     22.515877           8.493124e-01
H      16.247175     15.939906     22.771999           8.493124e-01
H      14.974586     15.936781     21.997309           8.493124e-01
