124

O      15.849890     22.131222     16.251987           1.000000e+00
H      16.341930     21.802568     17.042130           1.000000e+00
H      15.828809     21.312090     15.667896           1.000000e+00
O      16.582476     18.323994     12.818412           1.000000e+00
H      17.340202     18.020752     12.311804           1.000000e+00
H      16.236357     17.458878     13.097540           1.000000e+00
O      12.852634     18.396629     19.183100           1.000000e+00
H      12.596728     17.474291     19.134556           1.000000e+00
H      12.875603     18.473919     20.149027           1.000000e+00
O      19.324598     18.458942     15.815214           1.000000e+00
H      19.801613     19.135571     16.326948           1.000000e+00
H      20.045204     18.070242     15.281183           1.000000e+00
O      19.407568     16.092152     13.411667           1.000000e+00
H      19.535660     15.496418     12.680254           1.000000e+00
H      20.152260     16.695307     13.260468           1.000000e+00
O      17.336523     21.438297     18.317154           1.000000e+00
H      18.114258     21.879099     18.027651           1.000000e+00
H      17.568207     21.078186     19.197252           1.000000e+00
O      15.399870     15.868324     12.917400           1.000000e+00
H      14.798154     16.330400     12.274746           1.000000e+00
H      15.011263     14.974651     12.943651           1.000000e+00
O      21.918810     17.097904     16.866226           1.000000e+00
H      22.637753     16.531219     17.218987           1.000000e+00
H      21.400595     16.424080     16.440620           1.000000e+00
O      17.046154     20.123543     14.994601           1.000000e+00
H      17.867052     19.648178     15.104691           1.000000e+00
H      16.705097     19.659184     14.237747           1.000000e+00
O      21.995001     20.497093     18.987301           1.000000e+00
H      21.754349     20.426439     18.019716           1.000000e+00
H      21.543852     21.337912     19.239777           1.000000e+00
O      12.915135     19.124838     15.401582           1.000000e+00
H      13.402140     19.276445     14.591918           1.000000e+00
H      12.759056     18.193907     15.319452           1.000000e+00
O      20.643023     14.991314     15.542240           1.000000e+00
H      20.006599     15.241765     14.844643           1.000000e+00
H      21.445616     14.753198     15.064707           1.000000e+00
O      20.057045     22.292974     18.348738           1.000000e+00
H      20.024780     22.109806     17.393509           1.000000e+00
H      20.190401     23.232943     18.341169           1.000000e+00
O      16.534916     12.831626     15.836741           1.000000e+00
H      16.251610     12.039162     15.390050           1.000000e+00
H      17.211113     13.132753     15.206369           1.000000e+00
O      17.423677     15.635972     14.951105           1.000000e+00
H      18.046185     16.075089     14.358568           1.000000e+00
H      16.574308     15.704290     14.449348           1.000000e+00
O      14.919689     18.215719     17.264582           1.000000e+00
H      14.490567     18.910778     16.807590           1.000000e+00
H      14.486197     18.176430     18.115324           1.000000e+00
O      18.990051     21.379776     20.865627           1.000000e+00
H      19.615856     21.696018     20.213924           1.000000e+00
H      19.542221     20.749462     21.362291           1.000000e+00
O      18.213678     17.519506     20.886761           1.000000e+00
H      18.869753     18.207005     20.752954           1.000000e+00
H      18.131918     17.108776     19.987425           1.000000e+00
O      19.091694     21.832754     15.464150           1.000000e+00
H      19.457771     21.304310     14.751055           1.000000e+00
H      18.270975     21.301044     15.491548           1.000000e+00
O      18.339970     14.965614     17.585882           1.000000e+00
H      17.854141     15.148424     16.731583           1.000000e+00
H      19.191982     15.184727     17.246923           1.000000e+00
O      21.373299     20.004318     16.466599           1.000000e+00
H      21.560608     20.440575     15.651738           1.000000e+00
H      21.713100     19.079327     16.311499           1.000000e+00
O      22.160631     17.566120     19.821871           1.000000e+00
H      22.178642     17.574614     18.849579           1.000000e+00
H      22.158554     18.516449     19.905968           1.000000e+00
O      17.600000     17.600000     17.600000           1.000000e+00
H      18.295336     17.896265     16.959713           1.000000e+00
H      17.692062     16.622578     17.473810           1.000000e+00
H      16.775173     17.857988     17.144356           1.000000e+00
O      13.902214     16.256353     21.555119           9.956818e-01
H      14.180995     17.135048     21.793789           9.956818e-01
H      13.057371     16.388620     21.082403           9.956818e-01
O      17.259192     12.222932     18.738033           9.999970e-01
H      17.748180     12.834955     19.244495           9.999970e-01
H      17.303381     12.595043     17.851446           9.999970e-01
O      11.936550     16.098345     19.964748           4.478693e-02
H      12.331726     15.288293     19.698629           4.478693e-02
H      10.993408     15.849303     20.156853           4.478693e-02
O      20.439079     19.341476     22.419773           7.513118e-01
H      20.423401     18.729227     23.179600           7.513118e-01
H      21.371693     19.618456     22.285061           7.513118e-01
O      13.372404     13.631006     19.150030           4.956139e-01
H      13.672256     12.844543     19.653891           4.956139e-01
H      13.476931     13.435369     18.181980           4.956139e-01
O      18.044888     17.050053     23.330856           8.691600e-01
H      18.085249     17.295918     22.394169           8.691600e-01
H      18.974083     17.202766     23.604383           8.691600e-01
O      19.648758     12.123512     14.898500           1.869504e-03
H      19.074631     12.557703     14.272276           1.869504e-03
H      19.762617     12.768711     15.598854           1.869504e-03
O      12.287749     16.501198     15.849173           9.418928e-01
H      12.465694     16.290098     16.774488           9.418928e-01
H      12.219368     15.604712     15.473215           9.418928e-01
O      13.982109     12.983074     16.537260           5.726672e-01
H      13.794108     12.004041     16.574104           5.726672e-01
H      14.825841     12.974558     16.048210           5.726672e-01
O      22.236959     14.350312     19.323347           6.496554e-01
H      22.664810     13.644704     19.854813           6.496554e-01
H      22.626616     15.070597     19.806095           6.496554e-01
O      14.431293     22.090031     20.240377           3.227426e-01
H      14.175299     22.190609     19.349127           3.227426e-01
H      15.373767     21.931391     20.146805           3.227426e-01
O      21.432959     17.770660     13.649183           9.999963e-01
H      22.395844     17.624191     13.815849           9.999963e-01
H      21.472914     18.577618     13.140900           9.999963e-01
O      14.158094     19.508650     12.771940           1.269493e-01
H      13.826553     18.866297     12.150003           1.269493e-01
H      15.091977     19.294704     12.833028           1.269493e-01
O      19.726576     20.483761     13.076990           8.739616e-01
H      18.968084     20.994850     12.779711           8.739616e-01
H      19.859444     19.878920     12.376190           8.739616e-01
O      12.717334     20.838100     17.506027           7.497878e-01
H      12.778578     20.219410     18.224064           7.497878e-01
H      12.727268     20.185581     16.826073           7.497878e-01
O      20.244631     12.797709     18.074677           9.999998e-01
H      21.010187     13.354088     18.362469           9.999998e-01
H      19.668880     13.513332     17.868156           9.999998e-01
O      16.320944     14.876514     22.565075           8.293936e-01
H      17.080151     15.475896     22.429237           8.293936e-01
H      15.570738     15.426537     22.309917           8.293936e-01
O      17.621515     13.077428     13.377166           1.798605e-01
H      18.108236     13.578663     12.702597           1.798605e-01
H      16.996689     12.498249     12.905468           1.798605e-01
